FoamFile
{
    version     2.0;
    format      ascii;
    class       dictionary;
    object      blockMeshDict;
}
// * * * * * * * * * * * * * * * * * * * * * * * * * * * * * * * * * * * * * //

convertToMeters 0.1;

vertices
(
    (0 0 0)
		(0 0 0.1)
    (0.5 0 0)
		(0.5 0 0.1)
		(1 0 0)
		(1 0 0.1)
		(0 -0.5 0)
		(0 -0.5 0.1)
		(0.5 -0.5 0)
		(0.5 -0.5 0.1)
		(1 -0.5 0)
		(1 -0.5 0.1)
		(0 -1 0)
		(0 -1 0.1)
		(0.5 -1 0)
		(0.5 -1 0.1)
		(1 -1 0)
		(1 -1 0.1)
);

blocks
(
		hex (12 14 8 6 13 15 9 7) (10 10 1) simpleGrading (1 1 1)
		hex (6 8 2 0 7 9 3 1) (10 10 1) simpleGrading (1 1 1)
		hex (8 10 4 2 9 11 5 3) (10 10 1) simpleGrading (1 1 1)
);

edges
(
);

boundary
(
    movingWall
    {
        type wall;
        faces
        (
					(0 2 3 1)
					(2 4 5 3)
        );
    }
    fixedWalls
    {
        type wall;
        faces
        (
					(0 6 7 1)
					(6 12 13 7)
					(12 14 15 13)
					(14 8 9 15)
					(8 10 11 9)
					(10 4 5 11)
        );
    }
    frontAndBack
    {
        type empty;
        faces
        (
					(0 6 8 2)
					(1 7 9 3)
					(6 12 14 8)
					(7 13 15 9)
					(2 8 10 4)
					(3 9 11 5)
        );
    }
);

mergePatchPairs
(
);

// ************************************************************************* //
