
	FoamFile
	{
		location		"system";
		version		2.0;
		class		dictionary;
		object		fvSolution;
		format		ascii;
	}

	solver
	{

		p
		{
			relTol		0.001;
			preconditioner		DIC;
			tolerance		1e-07;
			solver		PCG;
		}

		k
		{
			relTol		0.001;
			preconditioner		DIC;
			tolerance		1e-07;
			solver		PCG;
		}

		U
		{
			relTol		0.001;
			preconditioner		DIC;
			tolerance		1e-07;
			solver		PCG;
		}

		epsilon
		{
			relTol		0.001;
			preconditioner		DIC;
			tolerance		1e-07;
			solver		PCG;
		}
	}

	PISO
	{
		nNonOrthogonalCorectors		0;
	}

	relaxationFactors
	{
		p		0.3;
		k		0.7;
		U		0.7;
		epsilon		0.7;
	}
