
	FoamFile
	{
		version		2.0;
		format		ascii;
		class		dictionary;
		location		"system";
		object		fvSolution;
	}

	solver
	{

		U
		{
			solver		PCG;
			preconditioner		DIC;
			tolerance		1e-07;
			relTol		0.001;
		}

		p
		{
			solver		PCG;
			preconditioner		DIC;
			tolerance		1e-07;
			relTol		0.001;
		}
	}

	PISO
	{
		nNonOrthogonalCorectors		0;
	}

	relaxationFactors
	{
		U		0.7;
		p		0.3;
	}
