
         ______                      ______            __  
  ____  / ____/___  ____ _____ ___  / ____/___  ____  / /__
 / __ \/ /_  / __ \/ __ `/ __ `__ \/ /   / __ \/ __ \/ //_/
/ /_/ / __/ / /_/ / /_/ / / / / / / /___/ /_/ / /_/ / ,<   
\____/_/    \____/\__,_/_/ /_/ /_/\____/\____/\____/_/|_|  
                                                           
        
FoamFile
{
	version		2.0;
	format		ascii;
	class		dictionary;
	location		"system";
	object		fvSolution;
}

solver
{

	U
	{
		solver		PCG;
		preconditioner		diagonal;
		tolerance		1e-07;
		relTol		0.001;
	}

	p
	{
		solver		PCG;
		preconditioner		diagonal;
		tolerance		1e-07;
		relTol		0.001;
	}

	k
	{
		solver		PCG;
		preconditioner		diagonal;
		tolerance		1e-07;
		relTol		0.001;
	}

	epsilon
	{
		solver		PCG;
		preconditioner		diagonal;
		tolerance		1e-07;
		relTol		0.001;
	}
}

SIMPLE
{
	nNonOrthogonalCorectors		0;
}

relaxationFactors
{
	U		0.7;
	p		0.3;
	k		0.7;
	epsilon		0.7;
}
